topology_creation/OpenDSS_data/OBJECT_LV_5.dss
new load.LOADLVN_5_1 phases=3 bus1=LVN_5_b8.1.2.3 kV=0.4 model=2 conn=wye kW=1 pf=0.98 daily=Shape_387 vminpu=0.3 vmaxpu=1.5 
new load.LOADLVN_5_2 phases=3 bus1=LVN_5_b15.1.2.3 kV=0.4 model=2 conn=wye kW=1 pf=0.98 daily=Shape_388 vminpu=0.3 vmaxpu=1.5 
new load.LOADLVN_5_3 phases=3 bus1=LVN_5_b16.1.2.3 kV=0.4 model=2 conn=wye kW=1 pf=0.98 daily=Shape_389 vminpu=0.3 vmaxpu=1.5 
new load.LOADLVN_5_4 phases=3 bus1=LVN_5_b18.1.2.3 kV=0.4 model=2 conn=wye kW=1 pf=0.98 daily=Shape_390 vminpu=0.3 vmaxpu=1.5 
new load.LOADLVN_5_5 phases=3 bus1=LVN_5_b23.1.2.3 kV=0.4 model=2 conn=wye kW=1 pf=0.98 daily=Shape_391 vminpu=0.3 vmaxpu=1.5 
new load.LOADLVN_5_6 phases=3 bus1=LVN_5_b27.1.2.3 kV=0.4 model=2 conn=wye kW=1 pf=0.98 daily=Shape_392 vminpu=0.3 vmaxpu=1.5 
new load.LOADLVN_5_7 phases=3 bus1=LVN_5_b28.1.2.3 kV=0.4 model=2 conn=wye kW=1 pf=0.98 daily=Shape_393 vminpu=0.3 vmaxpu=1.5 
new load.LOADLVN_5_8 phases=3 bus1=LVN_5_b33.1.2.3 kV=0.4 model=2 conn=wye kW=1 pf=0.98 daily=Shape_394 vminpu=0.3 vmaxpu=1.5 
new load.LOADLVN_5_9 phases=3 bus1=LVN_5_b34.1.2.3 kV=0.4 model=2 conn=wye kW=1 pf=0.98 daily=Shape_395 vminpu=0.3 vmaxpu=1.5 
new load.LOADLVN_5_10 phases=3 bus1=LVN_5_b36.1.2.3 kV=0.4 model=2 conn=wye kW=1 pf=0.98 daily=Shape_396 vminpu=0.3 vmaxpu=1.5 
new load.LOADLVN_5_11 phases=3 bus1=LVN_5_b42.1.2.3 kV=0.4 model=2 conn=wye kW=1 pf=0.98 daily=Shape_397 vminpu=0.3 vmaxpu=1.5 
new load.LOADLVN_5_12 phases=3 bus1=LVN_5_b46.1.2.3 kV=0.4 model=2 conn=wye kW=1 pf=0.98 daily=Shape_398 vminpu=0.3 vmaxpu=1.5 
new load.LOADLVN_5_13 phases=3 bus1=LVN_5_b47.1.2.3 kV=0.4 model=2 conn=wye kW=1 pf=0.98 daily=Shape_399 vminpu=0.3 vmaxpu=1.5 
new load.LOADLVN_5_14 phases=3 bus1=LVN_5_b57.1.2.3 kV=0.4 model=2 conn=wye kW=1 pf=0.98 daily=Shape_400 vminpu=0.3 vmaxpu=1.5 
new load.LOADLVN_5_15 phases=3 bus1=LVN_5_b59.1.2.3 kV=0.4 model=2 conn=wye kW=1 pf=0.98 daily=Shape_401 vminpu=0.3 vmaxpu=1.5 
new load.LOADLVN_5_16 phases=3 bus1=LVN_5_b60.1.2.3 kV=0.4 model=2 conn=wye kW=1 pf=0.98 daily=Shape_402 vminpu=0.3 vmaxpu=1.5 
new load.LOADLVN_5_17 phases=3 bus1=LVN_5_b64.1.2.3 kV=0.4 model=2 conn=wye kW=1 pf=0.98 daily=Shape_403 vminpu=0.3 vmaxpu=1.5 
new load.LOADLVN_5_18 phases=3 bus1=LVN_5_b70.1.2.3 kV=0.4 model=2 conn=wye kW=1 pf=0.98 daily=Shape_404 vminpu=0.3 vmaxpu=1.5 
new load.LOADLVN_5_19 phases=3 bus1=LVN_5_b72.1.2.3 kV=0.4 model=2 conn=wye kW=1 pf=0.98 daily=Shape_405 vminpu=0.3 vmaxpu=1.5 
new load.LOADLVN_5_20 phases=3 bus1=LVN_5_b76.1.2.3 kV=0.4 model=2 conn=wye kW=1 pf=0.98 daily=Shape_406 vminpu=0.3 vmaxpu=1.5 
new load.LOADLVN_5_21 phases=3 bus1=LVN_5_b86.1.2.3 kV=0.4 model=2 conn=wye kW=1 pf=0.98 daily=Shape_407 vminpu=0.3 vmaxpu=1.5 
new load.LOADLVN_5_22 phases=3 bus1=LVN_5_b88.1.2.3 kV=0.4 model=2 conn=wye kW=1 pf=0.98 daily=Shape_408 vminpu=0.3 vmaxpu=1.5 
new load.LOADLVN_5_23 phases=3 bus1=LVN_5_b95.1.2.3 kV=0.4 model=2 conn=wye kW=1 pf=0.98 daily=Shape_409 vminpu=0.3 vmaxpu=1.5 
new load.LOADLVN_5_24 phases=3 bus1=LVN_5_b99.1.2.3 kV=0.4 model=2 conn=wye kW=1 pf=0.98 daily=Shape_410 vminpu=0.3 vmaxpu=1.5 
new load.LOADLVN_5_25 phases=3 bus1=LVN_5_b100.1.2.3 kV=0.4 model=2 conn=wye kW=1 pf=0.98 daily=Shape_411 vminpu=0.3 vmaxpu=1.5 
new load.LOADLVN_5_26 phases=3 bus1=LVN_5_b106.1.2.3 kV=0.4 model=2 conn=wye kW=1 pf=0.98 daily=Shape_412 vminpu=0.3 vmaxpu=1.5 
new load.LOADLVN_5_27 phases=3 bus1=LVN_5_b113.1.2.3 kV=0.4 model=2 conn=wye kW=1 pf=0.98 daily=Shape_413 vminpu=0.3 vmaxpu=1.5 
new load.LOADLVN_5_28 phases=3 bus1=LVN_5_b117.1.2.3 kV=0.4 model=2 conn=wye kW=1 pf=0.98 daily=Shape_414 vminpu=0.3 vmaxpu=1.5 
new load.LOADLVN_5_29 phases=3 bus1=LVN_5_b122.1.2.3 kV=0.4 model=2 conn=wye kW=1 pf=0.98 daily=Shape_415 vminpu=0.3 vmaxpu=1.5 
new load.LOADLVN_5_30 phases=3 bus1=LVN_5_b126.1.2.3 kV=0.4 model=2 conn=wye kW=1 pf=0.98 daily=Shape_416 vminpu=0.3 vmaxpu=1.5 
new load.LOADLVN_5_31 phases=3 bus1=LVN_5_b128.1.2.3 kV=0.4 model=2 conn=wye kW=1 pf=0.98 daily=Shape_417 vminpu=0.3 vmaxpu=1.5 
new load.LOADLVN_5_32 phases=3 bus1=LVN_5_b137.1.2.3 kV=0.4 model=2 conn=wye kW=1 pf=0.98 daily=Shape_418 vminpu=0.3 vmaxpu=1.5 
new load.LOADLVN_5_33 phases=3 bus1=LVN_5_b150.1.2.3 kV=0.4 model=2 conn=wye kW=1 pf=0.98 daily=Shape_419 vminpu=0.3 vmaxpu=1.5 
new load.LOADLVN_5_34 phases=3 bus1=LVN_5_b154.1.2.3 kV=0.4 model=2 conn=wye kW=1 pf=0.98 daily=Shape_420 vminpu=0.3 vmaxpu=1.5 
new load.LOADLVN_5_35 phases=3 bus1=LVN_5_b155.1.2.3 kV=0.4 model=2 conn=wye kW=1 pf=0.98 daily=Shape_421 vminpu=0.3 vmaxpu=1.5 
new load.LOADLVN_5_36 phases=3 bus1=LVN_5_b167.1.2.3 kV=0.4 model=2 conn=wye kW=1 pf=0.98 daily=Shape_422 vminpu=0.3 vmaxpu=1.5 
new load.LOADLVN_5_37 phases=3 bus1=LVN_5_b169.1.2.3 kV=0.4 model=2 conn=wye kW=1 pf=0.98 daily=Shape_423 vminpu=0.3 vmaxpu=1.5 
new load.LOADLVN_5_38 phases=3 bus1=LVN_5_b171.1.2.3 kV=0.4 model=2 conn=wye kW=1 pf=0.98 daily=Shape_424 vminpu=0.3 vmaxpu=1.5 
new load.LOADLVN_5_39 phases=3 bus1=LVN_5_b172.1.2.3 kV=0.4 model=2 conn=wye kW=1 pf=0.98 daily=Shape_425 vminpu=0.3 vmaxpu=1.5 
new load.LOADLVN_5_40 phases=3 bus1=LVN_5_b174.1.2.3 kV=0.4 model=2 conn=wye kW=1 pf=0.98 daily=Shape_426 vminpu=0.3 vmaxpu=1.5 
new load.LOADLVN_5_41 phases=3 bus1=LVN_5_b179.1.2.3 kV=0.4 model=2 conn=wye kW=1 pf=0.98 daily=Shape_427 vminpu=0.3 vmaxpu=1.5 
new load.LOADLVN_5_42 phases=3 bus1=LVN_5_b184.1.2.3 kV=0.4 model=2 conn=wye kW=1 pf=0.98 daily=Shape_428 vminpu=0.3 vmaxpu=1.5 
new load.LOADLVN_5_43 phases=3 bus1=LVN_5_b187.1.2.3 kV=0.4 model=2 conn=wye kW=1 pf=0.98 daily=Shape_429 vminpu=0.3 vmaxpu=1.5 
new load.LOADLVN_5_44 phases=3 bus1=LVN_5_b188.1.2.3 kV=0.4 model=2 conn=wye kW=1 pf=0.98 daily=Shape_430 vminpu=0.3 vmaxpu=1.5 
new load.LOADLVN_5_45 phases=3 bus1=LVN_5_b193.1.2.3 kV=0.4 model=2 conn=wye kW=1 pf=0.98 daily=Shape_431 vminpu=0.3 vmaxpu=1.5 
new load.LOADLVN_5_46 phases=3 bus1=LVN_5_b195.1.2.3 kV=0.4 model=2 conn=wye kW=1 pf=0.98 daily=Shape_432 vminpu=0.3 vmaxpu=1.5 
new load.LOADLVN_5_47 phases=3 bus1=LVN_5_b199.1.2.3 kV=0.4 model=2 conn=wye kW=1 pf=0.98 daily=Shape_433 vminpu=0.3 vmaxpu=1.5 
new load.LOADLVN_5_48 phases=3 bus1=LVN_5_b207.1.2.3 kV=0.4 model=2 conn=wye kW=1 pf=0.98 daily=Shape_434 vminpu=0.3 vmaxpu=1.5 
new load.LOADLVN_5_49 phases=3 bus1=LVN_5_b208.1.2.3 kV=0.4 model=2 conn=wye kW=1 pf=0.98 daily=Shape_435 vminpu=0.3 vmaxpu=1.5 
new load.LOADLVN_5_50 phases=3 bus1=LVN_5_b218.1.2.3 kV=0.4 model=2 conn=wye kW=1 pf=0.98 daily=Shape_436 vminpu=0.3 vmaxpu=1.5 
new load.LOADLVN_5_51 phases=3 bus1=LVN_5_b221.1.2.3 kV=0.4 model=2 conn=wye kW=1 pf=0.98 daily=Shape_437 vminpu=0.3 vmaxpu=1.5 
new load.LOADLVN_5_52 phases=3 bus1=LVN_5_b222.1.2.3 kV=0.4 model=2 conn=wye kW=1 pf=0.98 daily=Shape_438 vminpu=0.3 vmaxpu=1.5 
new load.LOADLVN_5_53 phases=3 bus1=LVN_5_b233.1.2.3 kV=0.4 model=2 conn=wye kW=1 pf=0.98 daily=Shape_439 vminpu=0.3 vmaxpu=1.5 
new load.LOADLVN_5_54 phases=3 bus1=LVN_5_b235.1.2.3 kV=0.4 model=2 conn=wye kW=1 pf=0.98 daily=Shape_440 vminpu=0.3 vmaxpu=1.5 
new load.LOADLVN_5_55 phases=3 bus1=LVN_5_b237.1.2.3 kV=0.4 model=2 conn=wye kW=1 pf=0.98 daily=Shape_441 vminpu=0.3 vmaxpu=1.5 
new load.LOADLVN_5_56 phases=3 bus1=LVN_5_b245.1.2.3 kV=0.4 model=2 conn=wye kW=1 pf=0.98 daily=Shape_442 vminpu=0.3 vmaxpu=1.5 
new load.LOADLVN_5_57 phases=3 bus1=LVN_5_b246.1.2.3 kV=0.4 model=2 conn=wye kW=1 pf=0.98 daily=Shape_443 vminpu=0.3 vmaxpu=1.5 
new load.LOADLVN_5_58 phases=3 bus1=LVN_5_b249.1.2.3 kV=0.4 model=2 conn=wye kW=1 pf=0.98 daily=Shape_444 vminpu=0.3 vmaxpu=1.5 
new load.LOADLVN_5_59 phases=3 bus1=LVN_5_b255.1.2.3 kV=0.4 model=2 conn=wye kW=1 pf=0.98 daily=Shape_445 vminpu=0.3 vmaxpu=1.5 
new load.LOADLVN_5_60 phases=3 bus1=LVN_5_b259.1.2.3 kV=0.4 model=2 conn=wye kW=1 pf=0.98 daily=Shape_446 vminpu=0.3 vmaxpu=1.5 
new load.LOADLVN_5_61 phases=3 bus1=LVN_5_b263.1.2.3 kV=0.4 model=2 conn=wye kW=1 pf=0.98 daily=Shape_447 vminpu=0.3 vmaxpu=1.5 
new load.LOADLVN_5_62 phases=3 bus1=LVN_5_b265.1.2.3 kV=0.4 model=2 conn=wye kW=1 pf=0.98 daily=Shape_448 vminpu=0.3 vmaxpu=1.5 
new load.LOADLVN_5_63 phases=3 bus1=LVN_5_b271.1.2.3 kV=0.4 model=2 conn=wye kW=1 pf=0.98 daily=Shape_449 vminpu=0.3 vmaxpu=1.5 
new load.LOADLVN_5_64 phases=3 bus1=LVN_5_b272.1.2.3 kV=0.4 model=2 conn=wye kW=1 pf=0.98 daily=Shape_450 vminpu=0.3 vmaxpu=1.5 
new load.LOADLVN_5_65 phases=3 bus1=LVN_5_b276.1.2.3 kV=0.4 model=2 conn=wye kW=1 pf=0.98 daily=Shape_451 vminpu=0.3 vmaxpu=1.5 
new load.LOADLVN_5_66 phases=3 bus1=LVN_5_b284.1.2.3 kV=0.4 model=2 conn=wye kW=1 pf=0.98 daily=Shape_452 vminpu=0.3 vmaxpu=1.5 
new load.LOADLVN_5_67 phases=3 bus1=LVN_5_b290.1.2.3 kV=0.4 model=2 conn=wye kW=1 pf=0.98 daily=Shape_453 vminpu=0.3 vmaxpu=1.5 
new load.LOADLVN_5_68 phases=3 bus1=LVN_5_b291.1.2.3 kV=0.4 model=2 conn=wye kW=1 pf=0.98 daily=Shape_454 vminpu=0.3 vmaxpu=1.5 
new load.LOADLVN_5_69 phases=3 bus1=LVN_5_b295.1.2.3 kV=0.4 model=2 conn=wye kW=1 pf=0.98 daily=Shape_455 vminpu=0.3 vmaxpu=1.5 
new load.LOADLVN_5_70 phases=3 bus1=LVN_5_b301.1.2.3 kV=0.4 model=2 conn=wye kW=1 pf=0.98 daily=Shape_456 vminpu=0.3 vmaxpu=1.5 
new load.LOADLVN_5_71 phases=3 bus1=LVN_5_b304.1.2.3 kV=0.4 model=2 conn=wye kW=1 pf=0.98 daily=Shape_457 vminpu=0.3 vmaxpu=1.5 
new load.LOADLVN_5_72 phases=3 bus1=LVN_5_b311.1.2.3 kV=0.4 model=2 conn=wye kW=1 pf=0.98 daily=Shape_458 vminpu=0.3 vmaxpu=1.5 
new load.LOADLVN_5_73 phases=3 bus1=LVN_5_b316.1.2.3 kV=0.4 model=2 conn=wye kW=1 pf=0.98 daily=Shape_459 vminpu=0.3 vmaxpu=1.5 
new load.LOADLVN_5_74 phases=3 bus1=LVN_5_b321.1.2.3 kV=0.4 model=2 conn=wye kW=1 pf=0.98 daily=Shape_460 vminpu=0.3 vmaxpu=1.5 
new load.LOADLVN_5_75 phases=3 bus1=LVN_5_b324.1.2.3 kV=0.4 model=2 conn=wye kW=1 pf=0.98 daily=Shape_461 vminpu=0.3 vmaxpu=1.5 
new load.LOADLVN_5_76 phases=3 bus1=LVN_5_b327.1.2.3 kV=0.4 model=2 conn=wye kW=1 pf=0.98 daily=Shape_462 vminpu=0.3 vmaxpu=1.5 
new load.LOADLVN_5_77 phases=3 bus1=LVN_5_b336.1.2.3 kV=0.4 model=2 conn=wye kW=1 pf=0.98 daily=Shape_463 vminpu=0.3 vmaxpu=1.5 
new load.LOADLVN_5_78 phases=3 bus1=LVN_5_b339.1.2.3 kV=0.4 model=2 conn=wye kW=1 pf=0.98 daily=Shape_464 vminpu=0.3 vmaxpu=1.5 
new load.LOADLVN_5_79 phases=3 bus1=LVN_5_b346.1.2.3 kV=0.4 model=2 conn=wye kW=1 pf=0.98 daily=Shape_465 vminpu=0.3 vmaxpu=1.5 
new load.LOADLVN_5_80 phases=3 bus1=LVN_5_b349.1.2.3 kV=0.4 model=2 conn=wye kW=1 pf=0.98 daily=Shape_466 vminpu=0.3 vmaxpu=1.5 
new load.LOADLVN_5_81 phases=3 bus1=LVN_5_b353.1.2.3 kV=0.4 model=2 conn=wye kW=1 pf=0.98 daily=Shape_467 vminpu=0.3 vmaxpu=1.5 
new load.LOADLVN_5_82 phases=3 bus1=LVN_5_b359.1.2.3 kV=0.4 model=2 conn=wye kW=1 pf=0.98 daily=Shape_468 vminpu=0.3 vmaxpu=1.5 
new load.LOADLVN_5_83 phases=3 bus1=LVN_5_b364.1.2.3 kV=0.4 model=2 conn=wye kW=1 pf=0.98 daily=Shape_469 vminpu=0.3 vmaxpu=1.5 
new load.LOADLVN_5_84 phases=3 bus1=LVN_5_b366.1.2.3 kV=0.4 model=2 conn=wye kW=1 pf=0.98 daily=Shape_470 vminpu=0.3 vmaxpu=1.5 
new load.LOADLVN_5_85 phases=3 bus1=LVN_5_b377.1.2.3 kV=0.4 model=2 conn=wye kW=1 pf=0.98 daily=Shape_471 vminpu=0.3 vmaxpu=1.5 
new load.LOADLVN_5_86 phases=3 bus1=LVN_5_b380.1.2.3 kV=0.4 model=2 conn=wye kW=1 pf=0.98 daily=Shape_472 vminpu=0.3 vmaxpu=1.5 
new load.LOADLVN_5_87 phases=3 bus1=LVN_5_b383.1.2.3 kV=0.4 model=2 conn=wye kW=1 pf=0.98 daily=Shape_473 vminpu=0.3 vmaxpu=1.5 
new load.LOADLVN_5_88 phases=3 bus1=LVN_5_b399.1.2.3 kV=0.4 model=2 conn=wye kW=1 pf=0.98 daily=Shape_474 vminpu=0.3 vmaxpu=1.5 
new load.LOADLVN_5_89 phases=3 bus1=LVN_5_b406.1.2.3 kV=0.4 model=2 conn=wye kW=1 pf=0.98 daily=Shape_475 vminpu=0.3 vmaxpu=1.5 
new load.LOADLVN_5_90 phases=3 bus1=LVN_5_b410.1.2.3 kV=0.4 model=2 conn=wye kW=1 pf=0.98 daily=Shape_476 vminpu=0.3 vmaxpu=1.5 
new load.LOADLVN_5_91 phases=3 bus1=LVN_5_b413.1.2.3 kV=0.4 model=2 conn=wye kW=1 pf=0.98 daily=Shape_477 vminpu=0.3 vmaxpu=1.5 
new load.LOADLVN_5_92 phases=3 bus1=LVN_5_b414.1.2.3 kV=0.4 model=2 conn=wye kW=1 pf=0.98 daily=Shape_478 vminpu=0.3 vmaxpu=1.5 
new load.LOADLVN_5_93 phases=3 bus1=LVN_5_b421.1.2.3 kV=0.4 model=2 conn=wye kW=1 pf=0.98 daily=Shape_479 vminpu=0.3 vmaxpu=1.5 
new load.LOADLVN_5_94 phases=3 bus1=LVN_5_b423.1.2.3 kV=0.4 model=2 conn=wye kW=1 pf=0.98 daily=Shape_480 vminpu=0.3 vmaxpu=1.5 
new load.LOADLVN_5_95 phases=3 bus1=LVN_5_b428.1.2.3 kV=0.4 model=2 conn=wye kW=1 pf=0.98 daily=Shape_481 vminpu=0.3 vmaxpu=1.5 
new load.LOADLVN_5_96 phases=3 bus1=LVN_5_b432.1.2.3 kV=0.4 model=2 conn=wye kW=1 pf=0.98 daily=Shape_482 vminpu=0.3 vmaxpu=1.5 
new load.LOADLVN_5_97 phases=3 bus1=LVN_5_b436.1.2.3 kV=0.4 model=2 conn=wye kW=1 pf=0.98 daily=Shape_483 vminpu=0.3 vmaxpu=1.5 
new load.LOADLVN_5_98 phases=3 bus1=LVN_5_b437.1.2.3 kV=0.4 model=2 conn=wye kW=1 pf=0.98 daily=Shape_484 vminpu=0.3 vmaxpu=1.5 
new load.LOADLVN_5_99 phases=3 bus1=LVN_5_b440.1.2.3 kV=0.4 model=2 conn=wye kW=1 pf=0.98 daily=Shape_485 vminpu=0.3 vmaxpu=1.5 
new load.LOADLVN_5_100 phases=3 bus1=LVN_5_b443.1.2.3 kV=0.4 model=2 conn=wye kW=1 pf=0.98 daily=Shape_486 vminpu=0.3 vmaxpu=1.5 
new load.LOADLVN_5_101 phases=3 bus1=LVN_5_b451.1.2.3 kV=0.4 model=2 conn=wye kW=1 pf=0.98 daily=Shape_487 vminpu=0.3 vmaxpu=1.5 
new load.LOADLVN_5_102 phases=3 bus1=LVN_5_b455.1.2.3 kV=0.4 model=2 conn=wye kW=1 pf=0.98 daily=Shape_488 vminpu=0.3 vmaxpu=1.5 
new load.LOADLVN_5_103 phases=3 bus1=LVN_5_b461.1.2.3 kV=0.4 model=2 conn=wye kW=1 pf=0.98 daily=Shape_489 vminpu=0.3 vmaxpu=1.5 
new load.LOADLVN_5_104 phases=3 bus1=LVN_5_b465.1.2.3 kV=0.4 model=2 conn=wye kW=1 pf=0.98 daily=Shape_490 vminpu=0.3 vmaxpu=1.5 
new load.LOADLVN_5_105 phases=3 bus1=LVN_5_b466.1.2.3 kV=0.4 model=2 conn=wye kW=1 pf=0.98 daily=Shape_491 vminpu=0.3 vmaxpu=1.5 
new load.LOADLVN_5_106 phases=3 bus1=LVN_5_b472.1.2.3 kV=0.4 model=2 conn=wye kW=1 pf=0.98 daily=Shape_492 vminpu=0.3 vmaxpu=1.5 
new load.LOADLVN_5_107 phases=3 bus1=LVN_5_b474.1.2.3 kV=0.4 model=2 conn=wye kW=1 pf=0.98 daily=Shape_493 vminpu=0.3 vmaxpu=1.5 
new load.LOADLVN_5_108 phases=3 bus1=LVN_5_b479.1.2.3 kV=0.4 model=2 conn=wye kW=1 pf=0.98 daily=Shape_494 vminpu=0.3 vmaxpu=1.5 
new load.LOADLVN_5_109 phases=3 bus1=LVN_5_b480.1.2.3 kV=0.4 model=2 conn=wye kW=1 pf=0.98 daily=Shape_495 vminpu=0.3 vmaxpu=1.5 
new load.LOADLVN_5_110 phases=3 bus1=LVN_5_b488.1.2.3 kV=0.4 model=2 conn=wye kW=1 pf=0.98 daily=Shape_496 vminpu=0.3 vmaxpu=1.5 
new load.LOADLVN_5_111 phases=3 bus1=LVN_5_b490.1.2.3 kV=0.4 model=2 conn=wye kW=1 pf=0.98 daily=Shape_497 vminpu=0.3 vmaxpu=1.5 
new load.LOADLVN_5_112 phases=3 bus1=LVN_5_b495.1.2.3 kV=0.4 model=2 conn=wye kW=1 pf=0.98 daily=Shape_498 vminpu=0.3 vmaxpu=1.5 
new load.LOADLVN_5_113 phases=3 bus1=LVN_5_b499.1.2.3 kV=0.4 model=2 conn=wye kW=1 pf=0.98 daily=Shape_499 vminpu=0.3 vmaxpu=1.5 
new load.LOADLVN_5_114 phases=3 bus1=LVN_5_b500.1.2.3 kV=0.4 model=2 conn=wye kW=1 pf=0.98 daily=Shape_500 vminpu=0.3 vmaxpu=1.5 
new load.LOADLVN_5_115 phases=3 bus1=LVN_5_b505.1.2.3 kV=0.4 model=2 conn=wye kW=1 pf=0.98 daily=Shape_501 vminpu=0.3 vmaxpu=1.5 
new load.LOADLVN_5_116 phases=3 bus1=LVN_5_b512.1.2.3 kV=0.4 model=2 conn=wye kW=1 pf=0.98 daily=Shape_502 vminpu=0.3 vmaxpu=1.5 
new load.LOADLVN_5_117 phases=3 bus1=LVN_5_b521.1.2.3 kV=0.4 model=2 conn=wye kW=1 pf=0.98 daily=Shape_503 vminpu=0.3 vmaxpu=1.5 
new load.LOADLVN_5_118 phases=3 bus1=LVN_5_b525.1.2.3 kV=0.4 model=2 conn=wye kW=1 pf=0.98 daily=Shape_504 vminpu=0.3 vmaxpu=1.5 
new load.LOADLVN_5_119 phases=3 bus1=LVN_5_b527.1.2.3 kV=0.4 model=2 conn=wye kW=1 pf=0.98 daily=Shape_505 vminpu=0.3 vmaxpu=1.5 
new load.LOADLVN_5_120 phases=3 bus1=LVN_5_b531.1.2.3 kV=0.4 model=2 conn=wye kW=1 pf=0.98 daily=Shape_506 vminpu=0.3 vmaxpu=1.5 
new load.LOADLVN_5_121 phases=3 bus1=LVN_5_b532.1.2.3 kV=0.4 model=2 conn=wye kW=1 pf=0.98 daily=Shape_507 vminpu=0.3 vmaxpu=1.5 
new load.LOADLVN_5_122 phases=3 bus1=LVN_5_b534.1.2.3 kV=0.4 model=2 conn=wye kW=1 pf=0.98 daily=Shape_508 vminpu=0.3 vmaxpu=1.5 
new load.LOADLVN_5_123 phases=3 bus1=LVN_5_b535.1.2.3 kV=0.4 model=2 conn=wye kW=1 pf=0.98 daily=Shape_509 vminpu=0.3 vmaxpu=1.5 
new load.LOADLVN_5_124 phases=3 bus1=LVN_5_b538.1.2.3 kV=0.4 model=2 conn=wye kW=1 pf=0.98 daily=Shape_510 vminpu=0.3 vmaxpu=1.5 
new load.LOADLVN_5_125 phases=3 bus1=LVN_5_b541.1.2.3 kV=0.4 model=2 conn=wye kW=1 pf=0.98 daily=Shape_511 vminpu=0.3 vmaxpu=1.5 
new load.LOADLVN_5_126 phases=3 bus1=LVN_5_b542.1.2.3 kV=0.4 model=2 conn=wye kW=1 pf=0.98 daily=Shape_512 vminpu=0.3 vmaxpu=1.5 
new load.LOADLVN_5_127 phases=3 bus1=LVN_5_b548.1.2.3 kV=0.4 model=2 conn=wye kW=1 pf=0.98 daily=Shape_513 vminpu=0.3 vmaxpu=1.5 
new load.LOADLVN_5_128 phases=3 bus1=LVN_5_b549.1.2.3 kV=0.4 model=2 conn=wye kW=1 pf=0.98 daily=Shape_514 vminpu=0.3 vmaxpu=1.5 
new load.LOADLVN_5_129 phases=3 bus1=LVN_5_b556.1.2.3 kV=0.4 model=2 conn=wye kW=1 pf=0.98 daily=Shape_515 vminpu=0.3 vmaxpu=1.5 
new load.LOADLVN_5_130 phases=3 bus1=LVN_5_b560.1.2.3 kV=0.4 model=2 conn=wye kW=1 pf=0.98 daily=Shape_516 vminpu=0.3 vmaxpu=1.5 
new load.LOADLVN_5_131 phases=3 bus1=LVN_5_b565.1.2.3 kV=0.4 model=2 conn=wye kW=1 pf=0.98 daily=Shape_517 vminpu=0.3 vmaxpu=1.5 
new load.LOADLVN_5_132 phases=3 bus1=LVN_5_b573.1.2.3 kV=0.4 model=2 conn=wye kW=1 pf=0.98 daily=Shape_518 vminpu=0.3 vmaxpu=1.5 
new load.LOADLVN_5_133 phases=3 bus1=LVN_5_b578.1.2.3 kV=0.4 model=2 conn=wye kW=1 pf=0.98 daily=Shape_519 vminpu=0.3 vmaxpu=1.5 
new load.LOADLVN_5_134 phases=3 bus1=LVN_5_b586.1.2.3 kV=0.4 model=2 conn=wye kW=1 pf=0.98 daily=Shape_520 vminpu=0.3 vmaxpu=1.5 
new load.LOADLVN_5_135 phases=3 bus1=LVN_5_b590.1.2.3 kV=0.4 model=2 conn=wye kW=1 pf=0.98 daily=Shape_521 vminpu=0.3 vmaxpu=1.5 
new load.LOADLVN_5_136 phases=3 bus1=LVN_5_b595.1.2.3 kV=0.4 model=2 conn=wye kW=1 pf=0.98 daily=Shape_522 vminpu=0.3 vmaxpu=1.5 
new load.LOADLVN_5_137 phases=3 bus1=LVN_5_b598.1.2.3 kV=0.4 model=2 conn=wye kW=1 pf=0.98 daily=Shape_523 vminpu=0.3 vmaxpu=1.5 
new load.LOADLVN_5_138 phases=3 bus1=LVN_5_b605.1.2.3 kV=0.4 model=2 conn=wye kW=1 pf=0.98 daily=Shape_524 vminpu=0.3 vmaxpu=1.5 
new load.LOADLVN_5_139 phases=3 bus1=LVN_5_b606.1.2.3 kV=0.4 model=2 conn=wye kW=1 pf=0.98 daily=Shape_525 vminpu=0.3 vmaxpu=1.5 
new load.LOADLVN_5_140 phases=3 bus1=LVN_5_b613.1.2.3 kV=0.4 model=2 conn=wye kW=1 pf=0.98 daily=Shape_526 vminpu=0.3 vmaxpu=1.5 
new load.LOADLVN_5_141 phases=3 bus1=LVN_5_b616.1.2.3 kV=0.4 model=2 conn=wye kW=1 pf=0.98 daily=Shape_527 vminpu=0.3 vmaxpu=1.5 
new load.LOADLVN_5_142 phases=3 bus1=LVN_5_b620.1.2.3 kV=0.4 model=2 conn=wye kW=1 pf=0.98 daily=Shape_528 vminpu=0.3 vmaxpu=1.5 
new load.LOADLVN_5_143 phases=3 bus1=LVN_5_b621.1.2.3 kV=0.4 model=2 conn=wye kW=1 pf=0.98 daily=Shape_529 vminpu=0.3 vmaxpu=1.5 
new load.LOADLVN_5_144 phases=3 bus1=LVN_5_b627.1.2.3 kV=0.4 model=2 conn=wye kW=1 pf=0.98 daily=Shape_530 vminpu=0.3 vmaxpu=1.5 
new load.LOADLVN_5_145 phases=3 bus1=LVN_5_b631.1.2.3 kV=0.4 model=2 conn=wye kW=1 pf=0.98 daily=Shape_531 vminpu=0.3 vmaxpu=1.5 
new load.LOADLVN_5_146 phases=3 bus1=LVN_5_b639.1.2.3 kV=0.4 model=2 conn=wye kW=1 pf=0.98 daily=Shape_532 vminpu=0.3 vmaxpu=1.5 
new load.LOADLVN_5_147 phases=3 bus1=LVN_5_b644.1.2.3 kV=0.4 model=2 conn=wye kW=1 pf=0.98 daily=Shape_533 vminpu=0.3 vmaxpu=1.5 
new load.LOADLVN_5_148 phases=3 bus1=LVN_5_b645.1.2.3 kV=0.4 model=2 conn=wye kW=1 pf=0.98 daily=Shape_534 vminpu=0.3 vmaxpu=1.5 
new load.LOADLVN_5_149 phases=3 bus1=LVN_5_b647.1.2.3 kV=0.4 model=2 conn=wye kW=1 pf=0.98 daily=Shape_535 vminpu=0.3 vmaxpu=1.5 
new load.LOADLVN_5_150 phases=3 bus1=LVN_5_b648.1.2.3 kV=0.4 model=2 conn=wye kW=1 pf=0.98 daily=Shape_536 vminpu=0.3 vmaxpu=1.5 
new load.LOADLVN_5_151 phases=3 bus1=LVN_5_b655.1.2.3 kV=0.4 model=2 conn=wye kW=1 pf=0.98 daily=Shape_537 vminpu=0.3 vmaxpu=1.5 
new PVSystem.PVLVN_5_1 phases=3 bus1=LVN_5_b172.1.2.3 kV=0.4 kva=7.5 pf=1 pmpp=6.75 temperature=25 irrad=1 EFFCURVE=Myeff P-TCURVE=MyPvsT model=1 daily=PV_Shape_5_1 VarFollowInverter=yes %cutin=0.1 %cutout=0.1 TDaily=MyTemp
new PVSystem.PVLVN_5_2 phases=3 bus1=LVN_5_b573.1.2.3 kV=0.4 kva=4.5 pf=1 pmpp=4.05 temperature=25 irrad=1 EFFCURVE=Myeff P-TCURVE=MyPvsT model=1 daily=PV_Shape_5_1 VarFollowInverter=yes %cutin=0.1 %cutout=0.1 TDaily=MyTemp
new PVSystem.PVLVN_5_3 phases=3 bus1=LVN_5_b631.1.2.3 kV=0.4 kva=8.5 pf=1 pmpp=7.65 temperature=25 irrad=1 EFFCURVE=Myeff P-TCURVE=MyPvsT model=1 daily=PV_Shape_5_1 VarFollowInverter=yes %cutin=0.1 %cutout=0.1 TDaily=MyTemp
new PVSystem.PVLVN_5_4 phases=3 bus1=LVN_5_b647.1.2.3 kV=0.4 kva=4.5 pf=1 pmpp=4.05 temperature=25 irrad=1 EFFCURVE=Myeff P-TCURVE=MyPvsT model=1 daily=PV_Shape_5_1 VarFollowInverter=yes %cutin=0.1 %cutout=0.1 TDaily=MyTemp
new PVSystem.PVLVN_5_5 phases=3 bus1=LVN_5_b237.1.2.3 kV=0.4 kva=8.5 pf=1 pmpp=7.65 temperature=25 irrad=1 EFFCURVE=Myeff P-TCURVE=MyPvsT model=1 daily=PV_Shape_5_1 VarFollowInverter=yes %cutin=0.1 %cutout=0.1 TDaily=MyTemp
new PVSystem.PVLVN_5_6 phases=3 bus1=LVN_5_b193.1.2.3 kV=0.4 kva=7.5 pf=1 pmpp=6.75 temperature=25 irrad=1 EFFCURVE=Myeff P-TCURVE=MyPvsT model=1 daily=PV_Shape_5_1 VarFollowInverter=yes %cutin=0.1 %cutout=0.1 TDaily=MyTemp
new PVSystem.PVLVN_5_7 phases=3 bus1=LVN_5_b122.1.2.3 kV=0.4 kva=3.5 pf=1 pmpp=3.15 temperature=25 irrad=1 EFFCURVE=Myeff P-TCURVE=MyPvsT model=1 daily=PV_Shape_5_1 VarFollowInverter=yes %cutin=0.1 %cutout=0.1 TDaily=MyTemp
new PVSystem.PVLVN_5_8 phases=3 bus1=LVN_5_b488.1.2.3 kV=0.4 kva=8.5 pf=1 pmpp=7.65 temperature=25 irrad=1 EFFCURVE=Myeff P-TCURVE=MyPvsT model=1 daily=PV_Shape_5_1 VarFollowInverter=yes %cutin=0.1 %cutout=0.1 TDaily=MyTemp
new PVSystem.PVLVN_5_9 phases=3 bus1=LVN_5_b466.1.2.3 kV=0.4 kva=8.5 pf=1 pmpp=7.65 temperature=25 irrad=1 EFFCURVE=Myeff P-TCURVE=MyPvsT model=1 daily=PV_Shape_5_1 VarFollowInverter=yes %cutin=0.1 %cutout=0.1 TDaily=MyTemp
new PVSystem.PVLVN_5_10 phases=3 bus1=LVN_5_b126.1.2.3 kV=0.4 kva=6.5 pf=1 pmpp=5.85 temperature=25 irrad=1 EFFCURVE=Myeff P-TCURVE=MyPvsT model=1 daily=PV_Shape_5_1 VarFollowInverter=yes %cutin=0.1 %cutout=0.1 TDaily=MyTemp
new PVSystem.PVLVN_5_11 phases=3 bus1=LVN_5_b295.1.2.3 kV=0.4 kva=5.5 pf=1 pmpp=4.95 temperature=25 irrad=1 EFFCURVE=Myeff P-TCURVE=MyPvsT model=1 daily=PV_Shape_5_1 VarFollowInverter=yes %cutin=0.1 %cutout=0.1 TDaily=MyTemp
new PVSystem.PVLVN_5_12 phases=3 bus1=LVN_5_b28.1.2.3 kV=0.4 kva=5.5 pf=1 pmpp=4.95 temperature=25 irrad=1 EFFCURVE=Myeff P-TCURVE=MyPvsT model=1 daily=PV_Shape_5_1 VarFollowInverter=yes %cutin=0.1 %cutout=0.1 TDaily=MyTemp
new PVSystem.PVLVN_5_13 phases=3 bus1=LVN_5_b432.1.2.3 kV=0.4 kva=7.5 pf=1 pmpp=6.75 temperature=25 irrad=1 EFFCURVE=Myeff P-TCURVE=MyPvsT model=1 daily=PV_Shape_5_1 VarFollowInverter=yes %cutin=0.1 %cutout=0.1 TDaily=MyTemp
new PVSystem.PVLVN_5_14 phases=3 bus1=LVN_5_b500.1.2.3 kV=0.4 kva=4.5 pf=1 pmpp=4.05 temperature=25 irrad=1 EFFCURVE=Myeff P-TCURVE=MyPvsT model=1 daily=PV_Shape_5_1 VarFollowInverter=yes %cutin=0.1 %cutout=0.1 TDaily=MyTemp
new PVSystem.PVLVN_5_15 phases=3 bus1=LVN_5_b556.1.2.3 kV=0.4 kva=3.5 pf=1 pmpp=3.15 temperature=25 irrad=1 EFFCURVE=Myeff P-TCURVE=MyPvsT model=1 daily=PV_Shape_5_1 VarFollowInverter=yes %cutin=0.1 %cutout=0.1 TDaily=MyTemp
new PVSystem.PVLVN_5_16 phases=3 bus1=LVN_5_b505.1.2.3 kV=0.4 kva=8.5 pf=1 pmpp=7.65 temperature=25 irrad=1 EFFCURVE=Myeff P-TCURVE=MyPvsT model=1 daily=PV_Shape_5_1 VarFollowInverter=yes %cutin=0.1 %cutout=0.1 TDaily=MyTemp
new PVSystem.PVLVN_5_17 phases=3 bus1=LVN_5_b291.1.2.3 kV=0.4 kva=8.5 pf=1 pmpp=7.65 temperature=25 irrad=1 EFFCURVE=Myeff P-TCURVE=MyPvsT model=1 daily=PV_Shape_5_1 VarFollowInverter=yes %cutin=0.1 %cutout=0.1 TDaily=MyTemp
new PVSystem.PVLVN_5_18 phases=3 bus1=LVN_5_b245.1.2.3 kV=0.4 kva=7.5 pf=1 pmpp=6.75 temperature=25 irrad=1 EFFCURVE=Myeff P-TCURVE=MyPvsT model=1 daily=PV_Shape_5_1 VarFollowInverter=yes %cutin=0.1 %cutout=0.1 TDaily=MyTemp
new PVSystem.PVLVN_5_19 phases=3 bus1=LVN_5_b34.1.2.3 kV=0.4 kva=8.5 pf=1 pmpp=7.65 temperature=25 irrad=1 EFFCURVE=Myeff P-TCURVE=MyPvsT model=1 daily=PV_Shape_5_1 VarFollowInverter=yes %cutin=0.1 %cutout=0.1 TDaily=MyTemp
new PVSystem.PVLVN_5_20 phases=3 bus1=LVN_5_b525.1.2.3 kV=0.4 kva=5.5 pf=1 pmpp=4.95 temperature=25 irrad=1 EFFCURVE=Myeff P-TCURVE=MyPvsT model=1 daily=PV_Shape_5_1 VarFollowInverter=yes %cutin=0.1 %cutout=0.1 TDaily=MyTemp
new PVSystem.PVLVN_5_21 phases=3 bus1=LVN_5_b70.1.2.3 kV=0.4 kva=3.5 pf=1 pmpp=3.15 temperature=25 irrad=1 EFFCURVE=Myeff P-TCURVE=MyPvsT model=1 daily=PV_Shape_5_1 VarFollowInverter=yes %cutin=0.1 %cutout=0.1 TDaily=MyTemp
new PVSystem.PVLVN_5_22 phases=3 bus1=LVN_5_b15.1.2.3 kV=0.4 kva=5.5 pf=1 pmpp=4.95 temperature=25 irrad=1 EFFCURVE=Myeff P-TCURVE=MyPvsT model=1 daily=PV_Shape_5_1 VarFollowInverter=yes %cutin=0.1 %cutout=0.1 TDaily=MyTemp
new PVSystem.PVLVN_5_23 phases=3 bus1=LVN_5_b187.1.2.3 kV=0.4 kva=7.5 pf=1 pmpp=6.75 temperature=25 irrad=1 EFFCURVE=Myeff P-TCURVE=MyPvsT model=1 daily=PV_Shape_5_1 VarFollowInverter=yes %cutin=0.1 %cutout=0.1 TDaily=MyTemp
new PVSystem.PVLVN_5_24 phases=3 bus1=LVN_5_b605.1.2.3 kV=0.4 kva=7.5 pf=1 pmpp=6.75 temperature=25 irrad=1 EFFCURVE=Myeff P-TCURVE=MyPvsT model=1 daily=PV_Shape_5_1 VarFollowInverter=yes %cutin=0.1 %cutout=0.1 TDaily=MyTemp
new PVSystem.PVLVN_5_25 phases=3 bus1=LVN_5_b436.1.2.3 kV=0.4 kva=8.5 pf=1 pmpp=7.65 temperature=25 irrad=1 EFFCURVE=Myeff P-TCURVE=MyPvsT model=1 daily=PV_Shape_5_1 VarFollowInverter=yes %cutin=0.1 %cutout=0.1 TDaily=MyTemp
new PVSystem.PVLVN_5_26 phases=3 bus1=LVN_5_b265.1.2.3 kV=0.4 kva=7.5 pf=1 pmpp=6.75 temperature=25 irrad=1 EFFCURVE=Myeff P-TCURVE=MyPvsT model=1 daily=PV_Shape_5_1 VarFollowInverter=yes %cutin=0.1 %cutout=0.1 TDaily=MyTemp
new PVSystem.PVLVN_5_27 phases=3 bus1=LVN_5_b548.1.2.3 kV=0.4 kva=6.5 pf=1 pmpp=5.85 temperature=25 irrad=1 EFFCURVE=Myeff P-TCURVE=MyPvsT model=1 daily=PV_Shape_5_1 VarFollowInverter=yes %cutin=0.1 %cutout=0.1 TDaily=MyTemp
new PVSystem.PVLVN_5_28 phases=3 bus1=LVN_5_b437.1.2.3 kV=0.4 kva=4.5 pf=1 pmpp=4.05 temperature=25 irrad=1 EFFCURVE=Myeff P-TCURVE=MyPvsT model=1 daily=PV_Shape_5_1 VarFollowInverter=yes %cutin=0.1 %cutout=0.1 TDaily=MyTemp
new PVSystem.PVLVN_5_29 phases=3 bus1=LVN_5_b410.1.2.3 kV=0.4 kva=5.5 pf=1 pmpp=4.95 temperature=25 irrad=1 EFFCURVE=Myeff P-TCURVE=MyPvsT model=1 daily=PV_Shape_5_1 VarFollowInverter=yes %cutin=0.1 %cutout=0.1 TDaily=MyTemp
new PVSystem.PVLVN_5_30 phases=3 bus1=LVN_5_b316.1.2.3 kV=0.4 kva=8.5 pf=1 pmpp=7.65 temperature=25 irrad=1 EFFCURVE=Myeff P-TCURVE=MyPvsT model=1 daily=PV_Shape_5_1 VarFollowInverter=yes %cutin=0.1 %cutout=0.1 TDaily=MyTemp
new PVSystem.PVLVN_5_31 phases=3 bus1=LVN_5_b620.1.2.3 kV=0.4 kva=5.5 pf=1 pmpp=4.95 temperature=25 irrad=1 EFFCURVE=Myeff P-TCURVE=MyPvsT model=1 daily=PV_Shape_5_1 VarFollowInverter=yes %cutin=0.1 %cutout=0.1 TDaily=MyTemp
new PVSystem.PVLVN_5_32 phases=3 bus1=LVN_5_b527.1.2.3 kV=0.4 kva=3.5 pf=1 pmpp=3.15 temperature=25 irrad=1 EFFCURVE=Myeff P-TCURVE=MyPvsT model=1 daily=PV_Shape_5_1 VarFollowInverter=yes %cutin=0.1 %cutout=0.1 TDaily=MyTemp
new PVSystem.PVLVN_5_33 phases=3 bus1=LVN_5_b16.1.2.3 kV=0.4 kva=8.5 pf=1 pmpp=7.65 temperature=25 irrad=1 EFFCURVE=Myeff P-TCURVE=MyPvsT model=1 daily=PV_Shape_5_1 VarFollowInverter=yes %cutin=0.1 %cutout=0.1 TDaily=MyTemp
new PVSystem.PVLVN_5_34 phases=3 bus1=LVN_5_b86.1.2.3 kV=0.4 kva=5.5 pf=1 pmpp=4.95 temperature=25 irrad=1 EFFCURVE=Myeff P-TCURVE=MyPvsT model=1 daily=PV_Shape_5_1 VarFollowInverter=yes %cutin=0.1 %cutout=0.1 TDaily=MyTemp
new PVSystem.PVLVN_5_35 phases=3 bus1=LVN_5_b346.1.2.3 kV=0.4 kva=4.5 pf=1 pmpp=4.05 temperature=25 irrad=1 EFFCURVE=Myeff P-TCURVE=MyPvsT model=1 daily=PV_Shape_5_1 VarFollowInverter=yes %cutin=0.1 %cutout=0.1 TDaily=MyTemp
new PVSystem.PVLVN_5_36 phases=3 bus1=LVN_5_b383.1.2.3 kV=0.4 kva=3.5 pf=1 pmpp=3.15 temperature=25 irrad=1 EFFCURVE=Myeff P-TCURVE=MyPvsT model=1 daily=PV_Shape_5_1 VarFollowInverter=yes %cutin=0.1 %cutout=0.1 TDaily=MyTemp
new PVSystem.PVLVN_5_37 phases=3 bus1=LVN_5_b195.1.2.3 kV=0.4 kva=6.5 pf=1 pmpp=5.85 temperature=25 irrad=1 EFFCURVE=Myeff P-TCURVE=MyPvsT model=1 daily=PV_Shape_5_1 VarFollowInverter=yes %cutin=0.1 %cutout=0.1 TDaily=MyTemp
new PVSystem.PVLVN_5_38 phases=3 bus1=LVN_5_b311.1.2.3 kV=0.4 kva=5.5 pf=1 pmpp=4.95 temperature=25 irrad=1 EFFCURVE=Myeff P-TCURVE=MyPvsT model=1 daily=PV_Shape_5_1 VarFollowInverter=yes %cutin=0.1 %cutout=0.1 TDaily=MyTemp
new PVSystem.PVLVN_5_39 phases=3 bus1=LVN_5_b276.1.2.3 kV=0.4 kva=5.5 pf=1 pmpp=4.95 temperature=25 irrad=1 EFFCURVE=Myeff P-TCURVE=MyPvsT model=1 daily=PV_Shape_5_1 VarFollowInverter=yes %cutin=0.1 %cutout=0.1 TDaily=MyTemp
new PVSystem.PVLVN_5_40 phases=3 bus1=LVN_5_b76.1.2.3 kV=0.4 kva=5.5 pf=1 pmpp=4.95 temperature=25 irrad=1 EFFCURVE=Myeff P-TCURVE=MyPvsT model=1 daily=PV_Shape_5_1 VarFollowInverter=yes %cutin=0.1 %cutout=0.1 TDaily=MyTemp
new PVSystem.PVLVN_5_41 phases=3 bus1=LVN_5_b613.1.2.3 kV=0.4 kva=6.5 pf=1 pmpp=5.85 temperature=25 irrad=1 EFFCURVE=Myeff P-TCURVE=MyPvsT model=1 daily=PV_Shape_5_1 VarFollowInverter=yes %cutin=0.1 %cutout=0.1 TDaily=MyTemp
new PVSystem.PVLVN_5_42 phases=3 bus1=LVN_5_b249.1.2.3 kV=0.4 kva=4.5 pf=1 pmpp=4.05 temperature=25 irrad=1 EFFCURVE=Myeff P-TCURVE=MyPvsT model=1 daily=PV_Shape_5_1 VarFollowInverter=yes %cutin=0.1 %cutout=0.1 TDaily=MyTemp
new PVSystem.PVLVN_5_43 phases=3 bus1=LVN_5_b535.1.2.3 kV=0.4 kva=5.5 pf=1 pmpp=4.95 temperature=25 irrad=1 EFFCURVE=Myeff P-TCURVE=MyPvsT model=1 daily=PV_Shape_5_1 VarFollowInverter=yes %cutin=0.1 %cutout=0.1 TDaily=MyTemp
new PVSystem.PVLVN_5_44 phases=3 bus1=LVN_5_b27.1.2.3 kV=0.4 kva=3.5 pf=1 pmpp=3.15 temperature=25 irrad=1 EFFCURVE=Myeff P-TCURVE=MyPvsT model=1 daily=PV_Shape_5_1 VarFollowInverter=yes %cutin=0.1 %cutout=0.1 TDaily=MyTemp
new PVSystem.PVLVN_5_45 phases=3 bus1=LVN_5_b284.1.2.3 kV=0.4 kva=4.5 pf=1 pmpp=4.05 temperature=25 irrad=1 EFFCURVE=Myeff P-TCURVE=MyPvsT model=1 daily=PV_Shape_5_1 VarFollowInverter=yes %cutin=0.1 %cutout=0.1 TDaily=MyTemp
new PVSystem.PVLVN_5_46 phases=3 bus1=LVN_5_b42.1.2.3 kV=0.4 kva=4.5 pf=1 pmpp=4.05 temperature=25 irrad=1 EFFCURVE=Myeff P-TCURVE=MyPvsT model=1 daily=PV_Shape_5_1 VarFollowInverter=yes %cutin=0.1 %cutout=0.1 TDaily=MyTemp
new PVSystem.PVLVN_5_47 phases=3 bus1=LVN_5_b222.1.2.3 kV=0.4 kva=7.5 pf=1 pmpp=6.75 temperature=25 irrad=1 EFFCURVE=Myeff P-TCURVE=MyPvsT model=1 daily=PV_Shape_5_1 VarFollowInverter=yes %cutin=0.1 %cutout=0.1 TDaily=MyTemp
new PVSystem.PVLVN_5_48 phases=3 bus1=LVN_5_b606.1.2.3 kV=0.4 kva=6.5 pf=1 pmpp=5.85 temperature=25 irrad=1 EFFCURVE=Myeff P-TCURVE=MyPvsT model=1 daily=PV_Shape_5_1 VarFollowInverter=yes %cutin=0.1 %cutout=0.1 TDaily=MyTemp
new PVSystem.PVLVN_5_49 phases=3 bus1=LVN_5_b542.1.2.3 kV=0.4 kva=7.5 pf=1 pmpp=6.75 temperature=25 irrad=1 EFFCURVE=Myeff P-TCURVE=MyPvsT model=1 daily=PV_Shape_5_1 VarFollowInverter=yes %cutin=0.1 %cutout=0.1 TDaily=MyTemp
new PVSystem.PVLVN_5_50 phases=3 bus1=LVN_5_b106.1.2.3 kV=0.4 kva=7.5 pf=1 pmpp=6.75 temperature=25 irrad=1 EFFCURVE=Myeff P-TCURVE=MyPvsT model=1 daily=PV_Shape_5_1 VarFollowInverter=yes %cutin=0.1 %cutout=0.1 TDaily=MyTemp
new PVSystem.PVLVN_5_51 phases=3 bus1=LVN_5_b359.1.2.3 kV=0.4 kva=8.5 pf=1 pmpp=7.65 temperature=25 irrad=1 EFFCURVE=Myeff P-TCURVE=MyPvsT model=1 daily=PV_Shape_5_1 VarFollowInverter=yes %cutin=0.1 %cutout=0.1 TDaily=MyTemp
new PVSystem.PVLVN_5_52 phases=3 bus1=LVN_5_b199.1.2.3 kV=0.4 kva=3.5 pf=1 pmpp=3.15 temperature=25 irrad=1 EFFCURVE=Myeff P-TCURVE=MyPvsT model=1 daily=PV_Shape_5_1 VarFollowInverter=yes %cutin=0.1 %cutout=0.1 TDaily=MyTemp
new PVSystem.PVLVN_5_53 phases=3 bus1=LVN_5_b590.1.2.3 kV=0.4 kva=6.5 pf=1 pmpp=5.85 temperature=25 irrad=1 EFFCURVE=Myeff P-TCURVE=MyPvsT model=1 daily=PV_Shape_5_1 VarFollowInverter=yes %cutin=0.1 %cutout=0.1 TDaily=MyTemp
new PVSystem.PVLVN_5_54 phases=3 bus1=LVN_5_b46.1.2.3 kV=0.4 kva=7.5 pf=1 pmpp=6.75 temperature=25 irrad=1 EFFCURVE=Myeff P-TCURVE=MyPvsT model=1 daily=PV_Shape_5_1 VarFollowInverter=yes %cutin=0.1 %cutout=0.1 TDaily=MyTemp
new PVSystem.PVLVN_5_55 phases=3 bus1=LVN_5_b512.1.2.3 kV=0.4 kva=7.5 pf=1 pmpp=6.75 temperature=25 irrad=1 EFFCURVE=Myeff P-TCURVE=MyPvsT model=1 daily=PV_Shape_5_1 VarFollowInverter=yes %cutin=0.1 %cutout=0.1 TDaily=MyTemp
new PVSystem.PVLVN_5_56 phases=3 bus1=LVN_5_b113.1.2.3 kV=0.4 kva=6.5 pf=1 pmpp=5.85 temperature=25 irrad=1 EFFCURVE=Myeff P-TCURVE=MyPvsT model=1 daily=PV_Shape_5_1 VarFollowInverter=yes %cutin=0.1 %cutout=0.1 TDaily=MyTemp
new PVSystem.PVLVN_5_57 phases=3 bus1=LVN_5_b474.1.2.3 kV=0.4 kva=3.5 pf=1 pmpp=3.15 temperature=25 irrad=1 EFFCURVE=Myeff P-TCURVE=MyPvsT model=1 daily=PV_Shape_5_1 VarFollowInverter=yes %cutin=0.1 %cutout=0.1 TDaily=MyTemp
new PVSystem.PVLVN_5_58 phases=3 bus1=LVN_5_b155.1.2.3 kV=0.4 kva=4.5 pf=1 pmpp=4.05 temperature=25 irrad=1 EFFCURVE=Myeff P-TCURVE=MyPvsT model=1 daily=PV_Shape_5_1 VarFollowInverter=yes %cutin=0.1 %cutout=0.1 TDaily=MyTemp
new PVSystem.PVLVN_5_59 phases=3 bus1=LVN_5_b150.1.2.3 kV=0.4 kva=4.5 pf=1 pmpp=4.05 temperature=25 irrad=1 EFFCURVE=Myeff P-TCURVE=MyPvsT model=1 daily=PV_Shape_5_1 VarFollowInverter=yes %cutin=0.1 %cutout=0.1 TDaily=MyTemp
new PVSystem.PVLVN_5_60 phases=3 bus1=LVN_5_b154.1.2.3 kV=0.4 kva=6.5 pf=1 pmpp=5.85 temperature=25 irrad=1 EFFCURVE=Myeff P-TCURVE=MyPvsT model=1 daily=PV_Shape_5_1 VarFollowInverter=yes %cutin=0.1 %cutout=0.1 TDaily=MyTemp
new PVSystem.PVLVN_5_61 phases=3 bus1=LVN_5_b639.1.2.3 kV=0.4 kva=4.5 pf=1 pmpp=4.05 temperature=25 irrad=1 EFFCURVE=Myeff P-TCURVE=MyPvsT model=1 daily=PV_Shape_5_1 VarFollowInverter=yes %cutin=0.1 %cutout=0.1 TDaily=MyTemp
new PVSystem.PVLVN_5_62 phases=3 bus1=LVN_5_b263.1.2.3 kV=0.4 kva=3.5 pf=1 pmpp=3.15 temperature=25 irrad=1 EFFCURVE=Myeff P-TCURVE=MyPvsT model=1 daily=PV_Shape_5_1 VarFollowInverter=yes %cutin=0.1 %cutout=0.1 TDaily=MyTemp
new PVSystem.PVLVN_5_63 phases=3 bus1=LVN_5_b428.1.2.3 kV=0.4 kva=8.5 pf=1 pmpp=7.65 temperature=25 irrad=1 EFFCURVE=Myeff P-TCURVE=MyPvsT model=1 daily=PV_Shape_5_1 VarFollowInverter=yes %cutin=0.1 %cutout=0.1 TDaily=MyTemp
new PVSystem.PVLVN_5_64 phases=3 bus1=LVN_5_b33.1.2.3 kV=0.4 kva=4.5 pf=1 pmpp=4.05 temperature=25 irrad=1 EFFCURVE=Myeff P-TCURVE=MyPvsT model=1 daily=PV_Shape_5_1 VarFollowInverter=yes %cutin=0.1 %cutout=0.1 TDaily=MyTemp
new PVSystem.PVLVN_5_65 phases=3 bus1=LVN_5_b167.1.2.3 kV=0.4 kva=8.5 pf=1 pmpp=7.65 temperature=25 irrad=1 EFFCURVE=Myeff P-TCURVE=MyPvsT model=1 daily=PV_Shape_5_1 VarFollowInverter=yes %cutin=0.1 %cutout=0.1 TDaily=MyTemp
new PVSystem.PVLVN_5_66 phases=3 bus1=LVN_5_b565.1.2.3 kV=0.4 kva=6.5 pf=1 pmpp=5.85 temperature=25 irrad=1 EFFCURVE=Myeff P-TCURVE=MyPvsT model=1 daily=PV_Shape_5_1 VarFollowInverter=yes %cutin=0.1 %cutout=0.1 TDaily=MyTemp
new PVSystem.PVLVN_5_67 phases=3 bus1=LVN_5_b324.1.2.3 kV=0.4 kva=4.5 pf=1 pmpp=4.05 temperature=25 irrad=1 EFFCURVE=Myeff P-TCURVE=MyPvsT model=1 daily=PV_Shape_5_1 VarFollowInverter=yes %cutin=0.1 %cutout=0.1 TDaily=MyTemp
new PVSystem.PVLVN_5_68 phases=3 bus1=LVN_5_b8.1.2.3 kV=0.4 kva=6.5 pf=1 pmpp=5.85 temperature=25 irrad=1 EFFCURVE=Myeff P-TCURVE=MyPvsT model=1 daily=PV_Shape_5_1 VarFollowInverter=yes %cutin=0.1 %cutout=0.1 TDaily=MyTemp
new PVSystem.PVLVN_5_69 phases=3 bus1=LVN_5_b327.1.2.3 kV=0.4 kva=7.5 pf=1 pmpp=6.75 temperature=25 irrad=1 EFFCURVE=Myeff P-TCURVE=MyPvsT model=1 daily=PV_Shape_5_1 VarFollowInverter=yes %cutin=0.1 %cutout=0.1 TDaily=MyTemp
new PVSystem.PVLVN_5_70 phases=3 bus1=LVN_5_b531.1.2.3 kV=0.4 kva=4.5 pf=1 pmpp=4.05 temperature=25 irrad=1 EFFCURVE=Myeff P-TCURVE=MyPvsT model=1 daily=PV_Shape_5_1 VarFollowInverter=yes %cutin=0.1 %cutout=0.1 TDaily=MyTemp
new PVSystem.PVLVN_5_71 phases=3 bus1=LVN_5_b560.1.2.3 kV=0.4 kva=3.5 pf=1 pmpp=3.15 temperature=25 irrad=1 EFFCURVE=Myeff P-TCURVE=MyPvsT model=1 daily=PV_Shape_5_1 VarFollowInverter=yes %cutin=0.1 %cutout=0.1 TDaily=MyTemp
new PVSystem.PVLVN_5_72 phases=3 bus1=LVN_5_b218.1.2.3 kV=0.4 kva=6.5 pf=1 pmpp=5.85 temperature=25 irrad=1 EFFCURVE=Myeff P-TCURVE=MyPvsT model=1 daily=PV_Shape_5_1 VarFollowInverter=yes %cutin=0.1 %cutout=0.1 TDaily=MyTemp
new PVSystem.PVLVN_5_73 phases=3 bus1=LVN_5_b169.1.2.3 kV=0.4 kva=4.5 pf=1 pmpp=4.05 temperature=25 irrad=1 EFFCURVE=Myeff P-TCURVE=MyPvsT model=1 daily=PV_Shape_5_1 VarFollowInverter=yes %cutin=0.1 %cutout=0.1 TDaily=MyTemp
new PVSystem.PVLVN_5_74 phases=3 bus1=LVN_5_b534.1.2.3 kV=0.4 kva=4.5 pf=1 pmpp=4.05 temperature=25 irrad=1 EFFCURVE=Myeff P-TCURVE=MyPvsT model=1 daily=PV_Shape_5_1 VarFollowInverter=yes %cutin=0.1 %cutout=0.1 TDaily=MyTemp
new PVSystem.PVLVN_5_75 phases=3 bus1=LVN_5_b304.1.2.3 kV=0.4 kva=8.5 pf=1 pmpp=7.65 temperature=25 irrad=1 EFFCURVE=Myeff P-TCURVE=MyPvsT model=1 daily=PV_Shape_5_1 VarFollowInverter=yes %cutin=0.1 %cutout=0.1 TDaily=MyTemp
new PVSystem.PVLVN_5_76 phases=3 bus1=LVN_5_b353.1.2.3 kV=0.4 kva=4.5 pf=1 pmpp=4.05 temperature=25 irrad=1 EFFCURVE=Myeff P-TCURVE=MyPvsT model=1 daily=PV_Shape_5_1 VarFollowInverter=yes %cutin=0.1 %cutout=0.1 TDaily=MyTemp
New InvControl.InvPVLVN_5_1 PVSystemList=PVLVN_5_1 mode=VOLTVAR voltage_curvex_ref=rated avgwindowlen=100m vvc_curve1=myvv_curve DeltaQ_factor=0.4 EventLog=yes VV_RefReactivePower=VARMAX_WATTS VarChangeTolerance=0.025 hysteresis_offset=-0.000 VoltageChangeTolerance=0.001
New InvControl.InvPVLVN_5_2 PVSystemList=PVLVN_5_2 mode=VOLTVAR voltage_curvex_ref=rated avgwindowlen=100m vvc_curve1=myvv_curve DeltaQ_factor=0.4 EventLog=yes VV_RefReactivePower=VARMAX_WATTS VarChangeTolerance=0.025 hysteresis_offset=-0.000 VoltageChangeTolerance=0.001
New InvControl.InvPVLVN_5_3 PVSystemList=PVLVN_5_3 mode=VOLTVAR voltage_curvex_ref=rated avgwindowlen=100m vvc_curve1=myvv_curve DeltaQ_factor=0.4 EventLog=yes VV_RefReactivePower=VARMAX_WATTS VarChangeTolerance=0.025 hysteresis_offset=-0.000 VoltageChangeTolerance=0.001
New InvControl.InvPVLVN_5_4 PVSystemList=PVLVN_5_4 mode=VOLTVAR voltage_curvex_ref=rated avgwindowlen=100m vvc_curve1=myvv_curve DeltaQ_factor=0.4 EventLog=yes VV_RefReactivePower=VARMAX_WATTS VarChangeTolerance=0.025 hysteresis_offset=-0.000 VoltageChangeTolerance=0.001
New InvControl.InvPVLVN_5_5 PVSystemList=PVLVN_5_5 mode=VOLTVAR voltage_curvex_ref=rated avgwindowlen=100m vvc_curve1=myvv_curve DeltaQ_factor=0.4 EventLog=yes VV_RefReactivePower=VARMAX_WATTS VarChangeTolerance=0.025 hysteresis_offset=-0.000 VoltageChangeTolerance=0.001
New InvControl.InvPVLVN_5_6 PVSystemList=PVLVN_5_6 mode=VOLTVAR voltage_curvex_ref=rated avgwindowlen=100m vvc_curve1=myvv_curve DeltaQ_factor=0.4 EventLog=yes VV_RefReactivePower=VARMAX_WATTS VarChangeTolerance=0.025 hysteresis_offset=-0.000 VoltageChangeTolerance=0.001
New InvControl.InvPVLVN_5_7 PVSystemList=PVLVN_5_7 mode=VOLTVAR voltage_curvex_ref=rated avgwindowlen=100m vvc_curve1=myvv_curve DeltaQ_factor=0.4 EventLog=yes VV_RefReactivePower=VARMAX_WATTS VarChangeTolerance=0.025 hysteresis_offset=-0.000 VoltageChangeTolerance=0.001
New InvControl.InvPVLVN_5_8 PVSystemList=PVLVN_5_8 mode=VOLTVAR voltage_curvex_ref=rated avgwindowlen=100m vvc_curve1=myvv_curve DeltaQ_factor=0.4 EventLog=yes VV_RefReactivePower=VARMAX_WATTS VarChangeTolerance=0.025 hysteresis_offset=-0.000 VoltageChangeTolerance=0.001
New InvControl.InvPVLVN_5_9 PVSystemList=PVLVN_5_9 mode=VOLTVAR voltage_curvex_ref=rated avgwindowlen=100m vvc_curve1=myvv_curve DeltaQ_factor=0.4 EventLog=yes VV_RefReactivePower=VARMAX_WATTS VarChangeTolerance=0.025 hysteresis_offset=-0.000 VoltageChangeTolerance=0.001
New InvControl.InvPVLVN_5_10 PVSystemList=PVLVN_5_10 mode=VOLTVAR voltage_curvex_ref=rated avgwindowlen=100m vvc_curve1=myvv_curve DeltaQ_factor=0.4 EventLog=yes VV_RefReactivePower=VARMAX_WATTS VarChangeTolerance=0.025 hysteresis_offset=-0.000 VoltageChangeTolerance=0.001
New InvControl.InvPVLVN_5_11 PVSystemList=PVLVN_5_11 mode=VOLTVAR voltage_curvex_ref=rated avgwindowlen=100m vvc_curve1=myvv_curve DeltaQ_factor=0.4 EventLog=yes VV_RefReactivePower=VARMAX_WATTS VarChangeTolerance=0.025 hysteresis_offset=-0.000 VoltageChangeTolerance=0.001
New InvControl.InvPVLVN_5_12 PVSystemList=PVLVN_5_12 mode=VOLTVAR voltage_curvex_ref=rated avgwindowlen=100m vvc_curve1=myvv_curve DeltaQ_factor=0.4 EventLog=yes VV_RefReactivePower=VARMAX_WATTS VarChangeTolerance=0.025 hysteresis_offset=-0.000 VoltageChangeTolerance=0.001
New InvControl.InvPVLVN_5_13 PVSystemList=PVLVN_5_13 mode=VOLTVAR voltage_curvex_ref=rated avgwindowlen=100m vvc_curve1=myvv_curve DeltaQ_factor=0.4 EventLog=yes VV_RefReactivePower=VARMAX_WATTS VarChangeTolerance=0.025 hysteresis_offset=-0.000 VoltageChangeTolerance=0.001
New InvControl.InvPVLVN_5_14 PVSystemList=PVLVN_5_14 mode=VOLTVAR voltage_curvex_ref=rated avgwindowlen=100m vvc_curve1=myvv_curve DeltaQ_factor=0.4 EventLog=yes VV_RefReactivePower=VARMAX_WATTS VarChangeTolerance=0.025 hysteresis_offset=-0.000 VoltageChangeTolerance=0.001
New InvControl.InvPVLVN_5_15 PVSystemList=PVLVN_5_15 mode=VOLTVAR voltage_curvex_ref=rated avgwindowlen=100m vvc_curve1=myvv_curve DeltaQ_factor=0.4 EventLog=yes VV_RefReactivePower=VARMAX_WATTS VarChangeTolerance=0.025 hysteresis_offset=-0.000 VoltageChangeTolerance=0.001
New InvControl.InvPVLVN_5_16 PVSystemList=PVLVN_5_16 mode=VOLTVAR voltage_curvex_ref=rated avgwindowlen=100m vvc_curve1=myvv_curve DeltaQ_factor=0.4 EventLog=yes VV_RefReactivePower=VARMAX_WATTS VarChangeTolerance=0.025 hysteresis_offset=-0.000 VoltageChangeTolerance=0.001
New InvControl.InvPVLVN_5_17 PVSystemList=PVLVN_5_17 mode=VOLTVAR voltage_curvex_ref=rated avgwindowlen=100m vvc_curve1=myvv_curve DeltaQ_factor=0.4 EventLog=yes VV_RefReactivePower=VARMAX_WATTS VarChangeTolerance=0.025 hysteresis_offset=-0.000 VoltageChangeTolerance=0.001
New InvControl.InvPVLVN_5_18 PVSystemList=PVLVN_5_18 mode=VOLTVAR voltage_curvex_ref=rated avgwindowlen=100m vvc_curve1=myvv_curve DeltaQ_factor=0.4 EventLog=yes VV_RefReactivePower=VARMAX_WATTS VarChangeTolerance=0.025 hysteresis_offset=-0.000 VoltageChangeTolerance=0.001
New InvControl.InvPVLVN_5_19 PVSystemList=PVLVN_5_19 mode=VOLTVAR voltage_curvex_ref=rated avgwindowlen=100m vvc_curve1=myvv_curve DeltaQ_factor=0.4 EventLog=yes VV_RefReactivePower=VARMAX_WATTS VarChangeTolerance=0.025 hysteresis_offset=-0.000 VoltageChangeTolerance=0.001
New InvControl.InvPVLVN_5_20 PVSystemList=PVLVN_5_20 mode=VOLTVAR voltage_curvex_ref=rated avgwindowlen=100m vvc_curve1=myvv_curve DeltaQ_factor=0.4 EventLog=yes VV_RefReactivePower=VARMAX_WATTS VarChangeTolerance=0.025 hysteresis_offset=-0.000 VoltageChangeTolerance=0.001
New InvControl.InvPVLVN_5_21 PVSystemList=PVLVN_5_21 mode=VOLTVAR voltage_curvex_ref=rated avgwindowlen=100m vvc_curve1=myvv_curve DeltaQ_factor=0.4 EventLog=yes VV_RefReactivePower=VARMAX_WATTS VarChangeTolerance=0.025 hysteresis_offset=-0.000 VoltageChangeTolerance=0.001
New InvControl.InvPVLVN_5_22 PVSystemList=PVLVN_5_22 mode=VOLTVAR voltage_curvex_ref=rated avgwindowlen=100m vvc_curve1=myvv_curve DeltaQ_factor=0.4 EventLog=yes VV_RefReactivePower=VARMAX_WATTS VarChangeTolerance=0.025 hysteresis_offset=-0.000 VoltageChangeTolerance=0.001
New InvControl.InvPVLVN_5_23 PVSystemList=PVLVN_5_23 mode=VOLTVAR voltage_curvex_ref=rated avgwindowlen=100m vvc_curve1=myvv_curve DeltaQ_factor=0.4 EventLog=yes VV_RefReactivePower=VARMAX_WATTS VarChangeTolerance=0.025 hysteresis_offset=-0.000 VoltageChangeTolerance=0.001
New InvControl.InvPVLVN_5_24 PVSystemList=PVLVN_5_24 mode=VOLTVAR voltage_curvex_ref=rated avgwindowlen=100m vvc_curve1=myvv_curve DeltaQ_factor=0.4 EventLog=yes VV_RefReactivePower=VARMAX_WATTS VarChangeTolerance=0.025 hysteresis_offset=-0.000 VoltageChangeTolerance=0.001
New InvControl.InvPVLVN_5_25 PVSystemList=PVLVN_5_25 mode=VOLTVAR voltage_curvex_ref=rated avgwindowlen=100m vvc_curve1=myvv_curve DeltaQ_factor=0.4 EventLog=yes VV_RefReactivePower=VARMAX_WATTS VarChangeTolerance=0.025 hysteresis_offset=-0.000 VoltageChangeTolerance=0.001
New InvControl.InvPVLVN_5_26 PVSystemList=PVLVN_5_26 mode=VOLTVAR voltage_curvex_ref=rated avgwindowlen=100m vvc_curve1=myvv_curve DeltaQ_factor=0.4 EventLog=yes VV_RefReactivePower=VARMAX_WATTS VarChangeTolerance=0.025 hysteresis_offset=-0.000 VoltageChangeTolerance=0.001
New InvControl.InvPVLVN_5_27 PVSystemList=PVLVN_5_27 mode=VOLTVAR voltage_curvex_ref=rated avgwindowlen=100m vvc_curve1=myvv_curve DeltaQ_factor=0.4 EventLog=yes VV_RefReactivePower=VARMAX_WATTS VarChangeTolerance=0.025 hysteresis_offset=-0.000 VoltageChangeTolerance=0.001
New InvControl.InvPVLVN_5_28 PVSystemList=PVLVN_5_28 mode=VOLTVAR voltage_curvex_ref=rated avgwindowlen=100m vvc_curve1=myvv_curve DeltaQ_factor=0.4 EventLog=yes VV_RefReactivePower=VARMAX_WATTS VarChangeTolerance=0.025 hysteresis_offset=-0.000 VoltageChangeTolerance=0.001
New InvControl.InvPVLVN_5_29 PVSystemList=PVLVN_5_29 mode=VOLTVAR voltage_curvex_ref=rated avgwindowlen=100m vvc_curve1=myvv_curve DeltaQ_factor=0.4 EventLog=yes VV_RefReactivePower=VARMAX_WATTS VarChangeTolerance=0.025 hysteresis_offset=-0.000 VoltageChangeTolerance=0.001
New InvControl.InvPVLVN_5_30 PVSystemList=PVLVN_5_30 mode=VOLTVAR voltage_curvex_ref=rated avgwindowlen=100m vvc_curve1=myvv_curve DeltaQ_factor=0.4 EventLog=yes VV_RefReactivePower=VARMAX_WATTS VarChangeTolerance=0.025 hysteresis_offset=-0.000 VoltageChangeTolerance=0.001
New InvControl.InvPVLVN_5_31 PVSystemList=PVLVN_5_31 mode=VOLTVAR voltage_curvex_ref=rated avgwindowlen=100m vvc_curve1=myvv_curve DeltaQ_factor=0.4 EventLog=yes VV_RefReactivePower=VARMAX_WATTS VarChangeTolerance=0.025 hysteresis_offset=-0.000 VoltageChangeTolerance=0.001
New InvControl.InvPVLVN_5_32 PVSystemList=PVLVN_5_32 mode=VOLTVAR voltage_curvex_ref=rated avgwindowlen=100m vvc_curve1=myvv_curve DeltaQ_factor=0.4 EventLog=yes VV_RefReactivePower=VARMAX_WATTS VarChangeTolerance=0.025 hysteresis_offset=-0.000 VoltageChangeTolerance=0.001
New InvControl.InvPVLVN_5_33 PVSystemList=PVLVN_5_33 mode=VOLTVAR voltage_curvex_ref=rated avgwindowlen=100m vvc_curve1=myvv_curve DeltaQ_factor=0.4 EventLog=yes VV_RefReactivePower=VARMAX_WATTS VarChangeTolerance=0.025 hysteresis_offset=-0.000 VoltageChangeTolerance=0.001
New InvControl.InvPVLVN_5_34 PVSystemList=PVLVN_5_34 mode=VOLTVAR voltage_curvex_ref=rated avgwindowlen=100m vvc_curve1=myvv_curve DeltaQ_factor=0.4 EventLog=yes VV_RefReactivePower=VARMAX_WATTS VarChangeTolerance=0.025 hysteresis_offset=-0.000 VoltageChangeTolerance=0.001
New InvControl.InvPVLVN_5_35 PVSystemList=PVLVN_5_35 mode=VOLTVAR voltage_curvex_ref=rated avgwindowlen=100m vvc_curve1=myvv_curve DeltaQ_factor=0.4 EventLog=yes VV_RefReactivePower=VARMAX_WATTS VarChangeTolerance=0.025 hysteresis_offset=-0.000 VoltageChangeTolerance=0.001
New InvControl.InvPVLVN_5_36 PVSystemList=PVLVN_5_36 mode=VOLTVAR voltage_curvex_ref=rated avgwindowlen=100m vvc_curve1=myvv_curve DeltaQ_factor=0.4 EventLog=yes VV_RefReactivePower=VARMAX_WATTS VarChangeTolerance=0.025 hysteresis_offset=-0.000 VoltageChangeTolerance=0.001
New InvControl.InvPVLVN_5_37 PVSystemList=PVLVN_5_37 mode=VOLTVAR voltage_curvex_ref=rated avgwindowlen=100m vvc_curve1=myvv_curve DeltaQ_factor=0.4 EventLog=yes VV_RefReactivePower=VARMAX_WATTS VarChangeTolerance=0.025 hysteresis_offset=-0.000 VoltageChangeTolerance=0.001
New InvControl.InvPVLVN_5_38 PVSystemList=PVLVN_5_38 mode=VOLTVAR voltage_curvex_ref=rated avgwindowlen=100m vvc_curve1=myvv_curve DeltaQ_factor=0.4 EventLog=yes VV_RefReactivePower=VARMAX_WATTS VarChangeTolerance=0.025 hysteresis_offset=-0.000 VoltageChangeTolerance=0.001
New InvControl.InvPVLVN_5_39 PVSystemList=PVLVN_5_39 mode=VOLTVAR voltage_curvex_ref=rated avgwindowlen=100m vvc_curve1=myvv_curve DeltaQ_factor=0.4 EventLog=yes VV_RefReactivePower=VARMAX_WATTS VarChangeTolerance=0.025 hysteresis_offset=-0.000 VoltageChangeTolerance=0.001
New InvControl.InvPVLVN_5_40 PVSystemList=PVLVN_5_40 mode=VOLTVAR voltage_curvex_ref=rated avgwindowlen=100m vvc_curve1=myvv_curve DeltaQ_factor=0.4 EventLog=yes VV_RefReactivePower=VARMAX_WATTS VarChangeTolerance=0.025 hysteresis_offset=-0.000 VoltageChangeTolerance=0.001
New InvControl.InvPVLVN_5_41 PVSystemList=PVLVN_5_41 mode=VOLTVAR voltage_curvex_ref=rated avgwindowlen=100m vvc_curve1=myvv_curve DeltaQ_factor=0.4 EventLog=yes VV_RefReactivePower=VARMAX_WATTS VarChangeTolerance=0.025 hysteresis_offset=-0.000 VoltageChangeTolerance=0.001
New InvControl.InvPVLVN_5_42 PVSystemList=PVLVN_5_42 mode=VOLTVAR voltage_curvex_ref=rated avgwindowlen=100m vvc_curve1=myvv_curve DeltaQ_factor=0.4 EventLog=yes VV_RefReactivePower=VARMAX_WATTS VarChangeTolerance=0.025 hysteresis_offset=-0.000 VoltageChangeTolerance=0.001
New InvControl.InvPVLVN_5_43 PVSystemList=PVLVN_5_43 mode=VOLTVAR voltage_curvex_ref=rated avgwindowlen=100m vvc_curve1=myvv_curve DeltaQ_factor=0.4 EventLog=yes VV_RefReactivePower=VARMAX_WATTS VarChangeTolerance=0.025 hysteresis_offset=-0.000 VoltageChangeTolerance=0.001
New InvControl.InvPVLVN_5_44 PVSystemList=PVLVN_5_44 mode=VOLTVAR voltage_curvex_ref=rated avgwindowlen=100m vvc_curve1=myvv_curve DeltaQ_factor=0.4 EventLog=yes VV_RefReactivePower=VARMAX_WATTS VarChangeTolerance=0.025 hysteresis_offset=-0.000 VoltageChangeTolerance=0.001
New InvControl.InvPVLVN_5_45 PVSystemList=PVLVN_5_45 mode=VOLTVAR voltage_curvex_ref=rated avgwindowlen=100m vvc_curve1=myvv_curve DeltaQ_factor=0.4 EventLog=yes VV_RefReactivePower=VARMAX_WATTS VarChangeTolerance=0.025 hysteresis_offset=-0.000 VoltageChangeTolerance=0.001
New InvControl.InvPVLVN_5_46 PVSystemList=PVLVN_5_46 mode=VOLTVAR voltage_curvex_ref=rated avgwindowlen=100m vvc_curve1=myvv_curve DeltaQ_factor=0.4 EventLog=yes VV_RefReactivePower=VARMAX_WATTS VarChangeTolerance=0.025 hysteresis_offset=-0.000 VoltageChangeTolerance=0.001
New InvControl.InvPVLVN_5_47 PVSystemList=PVLVN_5_47 mode=VOLTVAR voltage_curvex_ref=rated avgwindowlen=100m vvc_curve1=myvv_curve DeltaQ_factor=0.4 EventLog=yes VV_RefReactivePower=VARMAX_WATTS VarChangeTolerance=0.025 hysteresis_offset=-0.000 VoltageChangeTolerance=0.001
New InvControl.InvPVLVN_5_48 PVSystemList=PVLVN_5_48 mode=VOLTVAR voltage_curvex_ref=rated avgwindowlen=100m vvc_curve1=myvv_curve DeltaQ_factor=0.4 EventLog=yes VV_RefReactivePower=VARMAX_WATTS VarChangeTolerance=0.025 hysteresis_offset=-0.000 VoltageChangeTolerance=0.001
New InvControl.InvPVLVN_5_49 PVSystemList=PVLVN_5_49 mode=VOLTVAR voltage_curvex_ref=rated avgwindowlen=100m vvc_curve1=myvv_curve DeltaQ_factor=0.4 EventLog=yes VV_RefReactivePower=VARMAX_WATTS VarChangeTolerance=0.025 hysteresis_offset=-0.000 VoltageChangeTolerance=0.001
New InvControl.InvPVLVN_5_50 PVSystemList=PVLVN_5_50 mode=VOLTVAR voltage_curvex_ref=rated avgwindowlen=100m vvc_curve1=myvv_curve DeltaQ_factor=0.4 EventLog=yes VV_RefReactivePower=VARMAX_WATTS VarChangeTolerance=0.025 hysteresis_offset=-0.000 VoltageChangeTolerance=0.001
New InvControl.InvPVLVN_5_51 PVSystemList=PVLVN_5_51 mode=VOLTVAR voltage_curvex_ref=rated avgwindowlen=100m vvc_curve1=myvv_curve DeltaQ_factor=0.4 EventLog=yes VV_RefReactivePower=VARMAX_WATTS VarChangeTolerance=0.025 hysteresis_offset=-0.000 VoltageChangeTolerance=0.001
New InvControl.InvPVLVN_5_52 PVSystemList=PVLVN_5_52 mode=VOLTVAR voltage_curvex_ref=rated avgwindowlen=100m vvc_curve1=myvv_curve DeltaQ_factor=0.4 EventLog=yes VV_RefReactivePower=VARMAX_WATTS VarChangeTolerance=0.025 hysteresis_offset=-0.000 VoltageChangeTolerance=0.001
New InvControl.InvPVLVN_5_53 PVSystemList=PVLVN_5_53 mode=VOLTVAR voltage_curvex_ref=rated avgwindowlen=100m vvc_curve1=myvv_curve DeltaQ_factor=0.4 EventLog=yes VV_RefReactivePower=VARMAX_WATTS VarChangeTolerance=0.025 hysteresis_offset=-0.000 VoltageChangeTolerance=0.001
New InvControl.InvPVLVN_5_54 PVSystemList=PVLVN_5_54 mode=VOLTVAR voltage_curvex_ref=rated avgwindowlen=100m vvc_curve1=myvv_curve DeltaQ_factor=0.4 EventLog=yes VV_RefReactivePower=VARMAX_WATTS VarChangeTolerance=0.025 hysteresis_offset=-0.000 VoltageChangeTolerance=0.001
New InvControl.InvPVLVN_5_55 PVSystemList=PVLVN_5_55 mode=VOLTVAR voltage_curvex_ref=rated avgwindowlen=100m vvc_curve1=myvv_curve DeltaQ_factor=0.4 EventLog=yes VV_RefReactivePower=VARMAX_WATTS VarChangeTolerance=0.025 hysteresis_offset=-0.000 VoltageChangeTolerance=0.001
New InvControl.InvPVLVN_5_56 PVSystemList=PVLVN_5_56 mode=VOLTVAR voltage_curvex_ref=rated avgwindowlen=100m vvc_curve1=myvv_curve DeltaQ_factor=0.4 EventLog=yes VV_RefReactivePower=VARMAX_WATTS VarChangeTolerance=0.025 hysteresis_offset=-0.000 VoltageChangeTolerance=0.001
New InvControl.InvPVLVN_5_57 PVSystemList=PVLVN_5_57 mode=VOLTVAR voltage_curvex_ref=rated avgwindowlen=100m vvc_curve1=myvv_curve DeltaQ_factor=0.4 EventLog=yes VV_RefReactivePower=VARMAX_WATTS VarChangeTolerance=0.025 hysteresis_offset=-0.000 VoltageChangeTolerance=0.001
New InvControl.InvPVLVN_5_58 PVSystemList=PVLVN_5_58 mode=VOLTVAR voltage_curvex_ref=rated avgwindowlen=100m vvc_curve1=myvv_curve DeltaQ_factor=0.4 EventLog=yes VV_RefReactivePower=VARMAX_WATTS VarChangeTolerance=0.025 hysteresis_offset=-0.000 VoltageChangeTolerance=0.001
New InvControl.InvPVLVN_5_59 PVSystemList=PVLVN_5_59 mode=VOLTVAR voltage_curvex_ref=rated avgwindowlen=100m vvc_curve1=myvv_curve DeltaQ_factor=0.4 EventLog=yes VV_RefReactivePower=VARMAX_WATTS VarChangeTolerance=0.025 hysteresis_offset=-0.000 VoltageChangeTolerance=0.001
New InvControl.InvPVLVN_5_60 PVSystemList=PVLVN_5_60 mode=VOLTVAR voltage_curvex_ref=rated avgwindowlen=100m vvc_curve1=myvv_curve DeltaQ_factor=0.4 EventLog=yes VV_RefReactivePower=VARMAX_WATTS VarChangeTolerance=0.025 hysteresis_offset=-0.000 VoltageChangeTolerance=0.001
New InvControl.InvPVLVN_5_61 PVSystemList=PVLVN_5_61 mode=VOLTVAR voltage_curvex_ref=rated avgwindowlen=100m vvc_curve1=myvv_curve DeltaQ_factor=0.4 EventLog=yes VV_RefReactivePower=VARMAX_WATTS VarChangeTolerance=0.025 hysteresis_offset=-0.000 VoltageChangeTolerance=0.001
New InvControl.InvPVLVN_5_62 PVSystemList=PVLVN_5_62 mode=VOLTVAR voltage_curvex_ref=rated avgwindowlen=100m vvc_curve1=myvv_curve DeltaQ_factor=0.4 EventLog=yes VV_RefReactivePower=VARMAX_WATTS VarChangeTolerance=0.025 hysteresis_offset=-0.000 VoltageChangeTolerance=0.001
New InvControl.InvPVLVN_5_63 PVSystemList=PVLVN_5_63 mode=VOLTVAR voltage_curvex_ref=rated avgwindowlen=100m vvc_curve1=myvv_curve DeltaQ_factor=0.4 EventLog=yes VV_RefReactivePower=VARMAX_WATTS VarChangeTolerance=0.025 hysteresis_offset=-0.000 VoltageChangeTolerance=0.001
New InvControl.InvPVLVN_5_64 PVSystemList=PVLVN_5_64 mode=VOLTVAR voltage_curvex_ref=rated avgwindowlen=100m vvc_curve1=myvv_curve DeltaQ_factor=0.4 EventLog=yes VV_RefReactivePower=VARMAX_WATTS VarChangeTolerance=0.025 hysteresis_offset=-0.000 VoltageChangeTolerance=0.001
New InvControl.InvPVLVN_5_65 PVSystemList=PVLVN_5_65 mode=VOLTVAR voltage_curvex_ref=rated avgwindowlen=100m vvc_curve1=myvv_curve DeltaQ_factor=0.4 EventLog=yes VV_RefReactivePower=VARMAX_WATTS VarChangeTolerance=0.025 hysteresis_offset=-0.000 VoltageChangeTolerance=0.001
New InvControl.InvPVLVN_5_66 PVSystemList=PVLVN_5_66 mode=VOLTVAR voltage_curvex_ref=rated avgwindowlen=100m vvc_curve1=myvv_curve DeltaQ_factor=0.4 EventLog=yes VV_RefReactivePower=VARMAX_WATTS VarChangeTolerance=0.025 hysteresis_offset=-0.000 VoltageChangeTolerance=0.001
New InvControl.InvPVLVN_5_67 PVSystemList=PVLVN_5_67 mode=VOLTVAR voltage_curvex_ref=rated avgwindowlen=100m vvc_curve1=myvv_curve DeltaQ_factor=0.4 EventLog=yes VV_RefReactivePower=VARMAX_WATTS VarChangeTolerance=0.025 hysteresis_offset=-0.000 VoltageChangeTolerance=0.001
New InvControl.InvPVLVN_5_68 PVSystemList=PVLVN_5_68 mode=VOLTVAR voltage_curvex_ref=rated avgwindowlen=100m vvc_curve1=myvv_curve DeltaQ_factor=0.4 EventLog=yes VV_RefReactivePower=VARMAX_WATTS VarChangeTolerance=0.025 hysteresis_offset=-0.000 VoltageChangeTolerance=0.001
New InvControl.InvPVLVN_5_69 PVSystemList=PVLVN_5_69 mode=VOLTVAR voltage_curvex_ref=rated avgwindowlen=100m vvc_curve1=myvv_curve DeltaQ_factor=0.4 EventLog=yes VV_RefReactivePower=VARMAX_WATTS VarChangeTolerance=0.025 hysteresis_offset=-0.000 VoltageChangeTolerance=0.001
New InvControl.InvPVLVN_5_70 PVSystemList=PVLVN_5_70 mode=VOLTVAR voltage_curvex_ref=rated avgwindowlen=100m vvc_curve1=myvv_curve DeltaQ_factor=0.4 EventLog=yes VV_RefReactivePower=VARMAX_WATTS VarChangeTolerance=0.025 hysteresis_offset=-0.000 VoltageChangeTolerance=0.001
New InvControl.InvPVLVN_5_71 PVSystemList=PVLVN_5_71 mode=VOLTVAR voltage_curvex_ref=rated avgwindowlen=100m vvc_curve1=myvv_curve DeltaQ_factor=0.4 EventLog=yes VV_RefReactivePower=VARMAX_WATTS VarChangeTolerance=0.025 hysteresis_offset=-0.000 VoltageChangeTolerance=0.001
New InvControl.InvPVLVN_5_72 PVSystemList=PVLVN_5_72 mode=VOLTVAR voltage_curvex_ref=rated avgwindowlen=100m vvc_curve1=myvv_curve DeltaQ_factor=0.4 EventLog=yes VV_RefReactivePower=VARMAX_WATTS VarChangeTolerance=0.025 hysteresis_offset=-0.000 VoltageChangeTolerance=0.001
New InvControl.InvPVLVN_5_73 PVSystemList=PVLVN_5_73 mode=VOLTVAR voltage_curvex_ref=rated avgwindowlen=100m vvc_curve1=myvv_curve DeltaQ_factor=0.4 EventLog=yes VV_RefReactivePower=VARMAX_WATTS VarChangeTolerance=0.025 hysteresis_offset=-0.000 VoltageChangeTolerance=0.001
New InvControl.InvPVLVN_5_74 PVSystemList=PVLVN_5_74 mode=VOLTVAR voltage_curvex_ref=rated avgwindowlen=100m vvc_curve1=myvv_curve DeltaQ_factor=0.4 EventLog=yes VV_RefReactivePower=VARMAX_WATTS VarChangeTolerance=0.025 hysteresis_offset=-0.000 VoltageChangeTolerance=0.001
New InvControl.InvPVLVN_5_75 PVSystemList=PVLVN_5_75 mode=VOLTVAR voltage_curvex_ref=rated avgwindowlen=100m vvc_curve1=myvv_curve DeltaQ_factor=0.4 EventLog=yes VV_RefReactivePower=VARMAX_WATTS VarChangeTolerance=0.025 hysteresis_offset=-0.000 VoltageChangeTolerance=0.001
New InvControl.InvPVLVN_5_76 PVSystemList=PVLVN_5_76 mode=VOLTVAR voltage_curvex_ref=rated avgwindowlen=100m vvc_curve1=myvv_curve DeltaQ_factor=0.4 EventLog=yes VV_RefReactivePower=VARMAX_WATTS VarChangeTolerance=0.025 hysteresis_offset=-0.000 VoltageChangeTolerance=0.001
